* NGSPICE file created from CHARGE_PUMP.ext - technology: ihp-sg13g2

.subckt CHARGE_PUMP_PEX UP VDD VCP VBGR VSS DN
X0 a_7067_7119.t11 VSS.t18 VDD.t15 VDD.t1 sg13_lv_pmos ad=1.1248p pd=6.3u as=1.1248p ps=6.3u w=5.92u l=2u
X1 a_6599_9155.t9 a_6599_9155.t8 a_7067_9155.t3 VDD.t10 sg13_lv_pmos ad=1.5542p pd=8.56u as=1.5542p ps=8.56u w=8.18u l=2u
X2 a_6599_9155.t30 a_6599_9155.t29 a_7067_9155.t1 VDD.t1 sg13_lv_pmos ad=2.7812p pd=17.04u as=1.5542p ps=8.56u w=8.18u l=2u
X3 a_7067_7119.t9 a_6599_9155.t43 a_6599_7119.t10 VDD.t7 sg13_lv_pmos ad=1.5542p pd=8.56u as=1.5542p ps=8.56u w=8.18u l=2u
X4 a_7067_9155.t11 VSS.t23 VDD.t6 VDD.t27 sg13_lv_pmos ad=1.1248p pd=6.3u as=1.1248p ps=6.3u w=5.92u l=2u
X5 a_7067_7119.t7 a_6599_9155.t45 a_6599_7119.t3 VDD.t12 sg13_lv_pmos ad=1.5542p pd=8.56u as=1.5542p ps=8.56u w=8.18u l=2u
X6 a_7067_7119.t5 a_6599_9155.t39 a_6599_7119.t2 VDD.t1 sg13_lv_pmos ad=1.5542p pd=8.56u as=1.5542p ps=8.56u w=8.18u l=2u
X7 a_7067_5083.t1 a_6599_9155.t51 VCP.t2 VDD.t4 sg13_lv_pmos ad=1.5542p pd=8.56u as=2.7812p ps=17.04u w=8.18u l=2u
X8 VCP.t1 a_6599_7119.t23 a_9470_2433.t1 VSS.t2 sg13_lv_nmos ad=1.5466p pd=8.52u as=2.7676p ps=16.96u w=8.14u l=2u
X9 a_7067_9155.t4 a_6599_9155.t4 a_6599_9155.t3 VDD.t4 sg13_lv_pmos ad=1.5542p pd=8.56u as=1.5542p ps=8.56u w=8.18u l=2u
X10 a_6599_9155.t6 a_6599_9155.t5 a_7067_9155.t4 VDD.t11 sg13_lv_pmos ad=1.5542p pd=8.56u as=1.5542p ps=8.56u w=8.18u l=2u
X11 a_7067_5083.t2 a_6599_9155.t41 VCP.t6 VDD.t0 sg13_lv_pmos ad=1.5542p pd=8.56u as=1.5542p ps=8.56u w=8.18u l=2u
X12 a_7067_7119.t3 a_6599_9155.t47 a_6599_7119.t6 VDD.t8 sg13_lv_pmos ad=1.5542p pd=8.56u as=1.5542p ps=8.56u w=8.18u l=2u
X13 VCP.t13 a_6599_7119.t19 a_9470_2433.t2 VSS.t15 sg13_lv_nmos ad=2.7676p pd=16.96u as=1.5466p ps=8.52u w=8.14u l=2u
X14 a_6599_9155.t31 VBGR.t0 VSS.t7 VSS.t6 sg13_lv_nmos ad=1.326p pd=8.48u as=1.326p ps=8.48u w=3.9u l=2u
X15 a_7067_9155.t5 a_6599_9155.t0 a_6599_9155.t1 VDD.t4 sg13_lv_pmos ad=1.5542p pd=8.56u as=2.7812p ps=17.04u w=8.18u l=2u
X16 a_7067_7119.t6 a_6599_9155.t37 a_6599_7119.t8 VDD.t1 sg13_lv_pmos ad=1.5542p pd=8.56u as=1.5542p ps=8.56u w=8.18u l=2u
X17 a_7067_5083.t9 a_6599_9155.t43 VCP.t11 VDD.t7 sg13_lv_pmos ad=1.5542p pd=8.56u as=1.5542p ps=8.56u w=8.18u l=2u
X18 VDD.t6 VSS.t24 a_7067_9155.t10 VDD.t5 sg13_lv_pmos ad=1.1248p pd=6.3u as=1.1248p ps=6.3u w=5.92u l=2u
X19 a_7067_9155.t0 a_6599_9155.t16 a_6599_9155.t15 VDD.t0 sg13_lv_pmos ad=1.5542p pd=8.56u as=1.5542p ps=8.56u w=8.18u l=2u
X20 a_7067_7119.t0 a_6599_9155.t33 a_6599_7119.t7 VDD.t1 sg13_lv_pmos ad=1.5542p pd=8.56u as=1.5542p ps=8.56u w=8.18u l=2u
X21 a_7067_5083.t7 a_6599_9155.t45 VCP.t4 VDD.t12 sg13_lv_pmos ad=1.5542p pd=8.56u as=1.5542p ps=8.56u w=8.18u l=2u
X22 a_7067_5083.t5 a_6599_9155.t39 VCP.t3 VDD.t1 sg13_lv_pmos ad=1.5542p pd=8.56u as=1.5542p ps=8.56u w=8.18u l=2u
X23 a_6684_2433.t2 a_6599_7119.t13 a_6599_7119.t12 VSS.t14 sg13_lv_nmos ad=1.5466p pd=8.52u as=1.5466p ps=8.52u w=8.14u l=2u
X24 a_7067_7119.t12 VSS.t16 VDD.t2 VDD.t1 sg13_lv_pmos ad=2.0128p pd=12.52u as=1.1248p ps=6.3u w=5.92u l=2u
X25 VCP.t12 a_6599_7119.t21 a_9470_2433.t0 VSS.t11 sg13_lv_nmos ad=1.5466p pd=8.52u as=1.5466p ps=8.52u w=8.14u l=2u
X26 a_6599_7119.t2 a_6599_9155.t40 a_7067_7119.t2 VDD.t1 sg13_lv_pmos ad=1.5542p pd=8.56u as=1.5542p ps=8.56u w=8.18u l=2u
X27 a_9470_2433.t3 DN.t0 VSS.t13 VSS.t12 sg13_lv_nmos ad=2.04p pd=12.68u as=2.04p ps=12.68u w=6u l=2u
X28 VDD.t20 UP.t4 a_7067_5083.t10 VDD.t1 sg13_lv_pmos ad=1.1248p pd=6.3u as=2.0128p ps=12.52u w=5.92u l=2u
X29 a_7067_9155.t2 a_6599_9155.t13 a_6599_9155.t12 VDD.t7 sg13_lv_pmos ad=1.5542p pd=8.56u as=1.5542p ps=8.56u w=8.18u l=2u
X30 a_6599_7119.t4 a_6599_9155.t36 a_7067_7119.t6 VDD.t1 sg13_lv_pmos ad=1.5542p pd=8.56u as=1.5542p ps=8.56u w=8.18u l=2u
X31 a_7067_7119.t4 a_6599_9155.t35 a_6599_7119.t4 VDD.t1 sg13_lv_pmos ad=1.5542p pd=8.56u as=1.5542p ps=8.56u w=8.18u l=2u
X32 VDD.t2 VSS.t17 a_7067_7119.t11 VDD.t1 sg13_lv_pmos ad=1.1248p pd=6.3u as=1.1248p ps=6.3u w=5.92u l=2u
X33 a_7067_5083.t3 a_6599_9155.t47 VCP.t7 VDD.t8 sg13_lv_pmos ad=1.5542p pd=8.56u as=1.5542p ps=8.56u w=8.18u l=2u
X34 a_7067_9155.t9 a_6599_9155.t10 a_6599_9155.t9 VDD.t12 sg13_lv_pmos ad=1.5542p pd=8.56u as=1.5542p ps=8.56u w=8.18u l=2u
X35 a_7067_9155.t8 a_6599_9155.t19 a_6599_9155.t18 VDD.t1 sg13_lv_pmos ad=1.5542p pd=8.56u as=1.5542p ps=8.56u w=8.18u l=2u
X36 a_7067_5083.t6 a_6599_9155.t37 VCP.t9 VDD.t1 sg13_lv_pmos ad=1.5542p pd=8.56u as=1.5542p ps=8.56u w=8.18u l=2u
X37 a_9470_2433.t2 a_6599_7119.t20 VCP.t12 VSS.t10 sg13_lv_nmos ad=1.5466p pd=8.52u as=1.5466p ps=8.52u w=8.14u l=2u
X38 a_6599_7119.t5 a_6599_9155.t42 a_7067_7119.t9 VDD.t9 sg13_lv_pmos ad=1.5542p pd=8.56u as=1.5542p ps=8.56u w=8.18u l=2u
X39 a_7067_5083.t0 a_6599_9155.t33 VCP.t8 VDD.t1 sg13_lv_pmos ad=1.5542p pd=8.56u as=1.5542p ps=8.56u w=8.18u l=2u
X40 a_7067_5083.t11 UP.t3 VDD.t20 VDD.t1 sg13_lv_pmos ad=1.1248p pd=6.3u as=1.1248p ps=6.3u w=5.92u l=2u
X41 a_6599_7119.t10 a_6599_9155.t44 a_7067_7119.t7 VDD.t13 sg13_lv_pmos ad=1.5542p pd=8.56u as=1.5542p ps=8.56u w=8.18u l=2u
X42 a_6599_7119.t8 a_6599_9155.t38 a_7067_7119.t5 VDD.t1 sg13_lv_pmos ad=1.5542p pd=8.56u as=1.5542p ps=8.56u w=8.18u l=2u
X43 VDD.t17 VSS.t22 a_7067_9155.t11 VDD.t16 sg13_lv_pmos ad=1.1248p pd=6.3u as=1.1248p ps=6.3u w=5.92u l=2u
X44 a_7067_9155.t3 a_6599_9155.t7 a_6599_9155.t6 VDD.t8 sg13_lv_pmos ad=1.5542p pd=8.56u as=1.5542p ps=8.56u w=8.18u l=2u
X45 a_6599_7119.t7 a_6599_9155.t34 a_7067_7119.t4 VDD.t1 sg13_lv_pmos ad=1.5542p pd=8.56u as=1.5542p ps=8.56u w=8.18u l=2u
X46 VCP.t3 a_6599_9155.t40 a_7067_5083.t2 VDD.t1 sg13_lv_pmos ad=1.5542p pd=8.56u as=1.5542p ps=8.56u w=8.18u l=2u
X47 a_7067_5083.t4 a_6599_9155.t35 VCP.t5 VDD.t1 sg13_lv_pmos ad=1.5542p pd=8.56u as=1.5542p ps=8.56u w=8.18u l=2u
X48 a_7067_9155.t6 a_6599_9155.t22 a_6599_9155.t21 VDD.t1 sg13_lv_pmos ad=1.5542p pd=8.56u as=1.5542p ps=8.56u w=8.18u l=2u
X49 VCP.t5 a_6599_9155.t36 a_7067_5083.t6 VDD.t1 sg13_lv_pmos ad=1.5542p pd=8.56u as=1.5542p ps=8.56u w=8.18u l=2u
X50 a_7067_9155.t1 a_6599_9155.t28 a_6599_9155.t27 VDD.t1 sg13_lv_pmos ad=1.5542p pd=8.56u as=1.5542p ps=8.56u w=8.18u l=2u
X51 VDD.t22 UP.t2 a_7067_5083.t11 VDD.t1 sg13_lv_pmos ad=1.1248p pd=6.3u as=1.1248p ps=6.3u w=5.92u l=2u
X52 a_6599_7119.t9 a_6599_9155.t50 a_7067_7119.t1 VDD.t4 sg13_lv_pmos ad=1.5542p pd=8.56u as=1.5542p ps=8.56u w=8.18u l=2u
X53 VCP.t6 a_6599_9155.t42 a_7067_5083.t9 VDD.t9 sg13_lv_pmos ad=1.5542p pd=8.56u as=1.5542p ps=8.56u w=8.18u l=2u
X54 a_9470_2433.t0 a_6599_7119.t22 VCP.t1 VSS.t0 sg13_lv_nmos ad=1.5466p pd=8.52u as=1.5466p ps=8.52u w=8.14u l=2u
X55 a_6684_2433.t3 VDD.t28 VSS.t9 VSS.t8 sg13_lv_nmos ad=2.04p pd=12.68u as=2.04p ps=12.68u w=6u l=2u
X56 a_7067_7119.t10 VSS.t20 VDD.t14 VDD.t9 sg13_lv_pmos ad=1.1248p pd=6.3u as=2.0128p ps=12.52u w=5.92u l=2u
X57 a_6599_9155.t18 a_6599_9155.t17 a_7067_9155.t0 VDD.t1 sg13_lv_pmos ad=1.5542p pd=8.56u as=1.5542p ps=8.56u w=8.18u l=2u
X58 a_6599_7119.t3 a_6599_9155.t46 a_7067_7119.t3 VDD.t10 sg13_lv_pmos ad=1.5542p pd=8.56u as=1.5542p ps=8.56u w=8.18u l=2u
X59 a_6599_7119.t0 a_6599_9155.t32 a_7067_7119.t0 VDD.t1 sg13_lv_pmos ad=2.7812p pd=17.04u as=1.5542p ps=8.56u w=8.18u l=2u
X60 VCP.t11 a_6599_9155.t44 a_7067_5083.t7 VDD.t13 sg13_lv_pmos ad=1.5542p pd=8.56u as=1.5542p ps=8.56u w=8.18u l=2u
X61 VCP.t9 a_6599_9155.t38 a_7067_5083.t5 VDD.t1 sg13_lv_pmos ad=1.5542p pd=8.56u as=1.5542p ps=8.56u w=8.18u l=2u
X62 a_6684_2433.t1 a_6599_7119.t16 a_6599_7119.t15 VSS.t4 sg13_lv_nmos ad=1.5466p pd=8.52u as=1.5466p ps=8.52u w=8.14u l=2u
X63 a_6599_9155.t24 a_6599_9155.t23 a_7067_9155.t6 VDD.t1 sg13_lv_pmos ad=1.5542p pd=8.56u as=1.5542p ps=8.56u w=8.18u l=2u
X64 a_7067_9155.t7 a_6599_9155.t25 a_6599_9155.t24 VDD.t1 sg13_lv_pmos ad=1.5542p pd=8.56u as=1.5542p ps=8.56u w=8.18u l=2u
X65 VCP.t8 a_6599_9155.t34 a_7067_5083.t4 VDD.t1 sg13_lv_pmos ad=1.5542p pd=8.56u as=1.5542p ps=8.56u w=8.18u l=2u
X66 a_6599_7119.t15 a_6599_7119.t14 a_6684_2433.t2 VSS.t5 sg13_lv_nmos ad=1.5466p pd=8.52u as=1.5466p ps=8.52u w=8.14u l=2u
X67 a_7067_5083.t12 UP.t1 VDD.t22 VDD.t1 sg13_lv_pmos ad=1.1248p pd=6.3u as=1.1248p ps=6.3u w=5.92u l=2u
X68 a_7067_9155.t10 VSS.t25 VDD.t26 VDD.t25 sg13_lv_pmos ad=1.1248p pd=6.3u as=2.0128p ps=12.52u w=5.92u l=2u
X69 a_6599_9155.t15 a_6599_9155.t14 a_7067_9155.t2 VDD.t9 sg13_lv_pmos ad=1.5542p pd=8.56u as=1.5542p ps=8.56u w=8.18u l=2u
X70 a_7067_7119.t8 a_6599_9155.t49 a_6599_7119.t9 VDD.t4 sg13_lv_pmos ad=1.5542p pd=8.56u as=1.5542p ps=8.56u w=8.18u l=2u
X71 a_6599_7119.t6 a_6599_9155.t48 a_7067_7119.t8 VDD.t11 sg13_lv_pmos ad=1.5542p pd=8.56u as=1.5542p ps=8.56u w=8.18u l=2u
X72 VDD.t15 VSS.t19 a_7067_7119.t10 VDD.t0 sg13_lv_pmos ad=1.1248p pd=6.3u as=1.1248p ps=6.3u w=5.92u l=2u
X73 a_6599_7119.t12 a_6599_7119.t11 a_6684_2433.t0 VSS.t1 sg13_lv_nmos ad=1.5466p pd=8.52u as=2.7676p ps=16.96u w=8.14u l=2u
X74 a_7067_9155.t12 VSS.t21 VDD.t17 VDD.t18 sg13_lv_pmos ad=2.0128p pd=12.52u as=1.1248p ps=6.3u w=5.92u l=2u
X75 a_6599_9155.t12 a_6599_9155.t11 a_7067_9155.t9 VDD.t13 sg13_lv_pmos ad=1.5542p pd=8.56u as=1.5542p ps=8.56u w=8.18u l=2u
X76 a_6599_9155.t21 a_6599_9155.t20 a_7067_9155.t8 VDD.t1 sg13_lv_pmos ad=1.5542p pd=8.56u as=1.5542p ps=8.56u w=8.18u l=2u
X77 VCP.t10 a_6599_9155.t50 a_7067_5083.t1 VDD.t4 sg13_lv_pmos ad=1.5542p pd=8.56u as=1.5542p ps=8.56u w=8.18u l=2u
X78 a_6599_7119.t18 a_6599_7119.t17 a_6684_2433.t1 VSS.t3 sg13_lv_nmos ad=2.7676p pd=16.96u as=1.5466p ps=8.52u w=8.14u l=2u
X79 a_6599_9155.t27 a_6599_9155.t26 a_7067_9155.t7 VDD.t1 sg13_lv_pmos ad=1.5542p pd=8.56u as=1.5542p ps=8.56u w=8.18u l=2u
X80 VCP.t4 a_6599_9155.t46 a_7067_5083.t3 VDD.t10 sg13_lv_pmos ad=1.5542p pd=8.56u as=1.5542p ps=8.56u w=8.18u l=2u
X81 VCP.t0 a_6599_9155.t32 a_7067_5083.t0 VDD.t1 sg13_lv_pmos ad=2.7812p pd=17.04u as=1.5542p ps=8.56u w=8.18u l=2u
X82 a_7067_7119.t1 a_6599_9155.t51 a_6599_7119.t1 VDD.t4 sg13_lv_pmos ad=1.5542p pd=8.56u as=2.7812p ps=17.04u w=8.18u l=2u
X83 a_7067_7119.t2 a_6599_9155.t41 a_6599_7119.t5 VDD.t0 sg13_lv_pmos ad=1.5542p pd=8.56u as=1.5542p ps=8.56u w=8.18u l=2u
X84 VDD.t24 UP.t0 a_7067_5083.t12 VDD.t1 sg13_lv_pmos ad=2.0128p pd=12.52u as=1.1248p ps=6.3u w=5.92u l=2u
X85 a_6599_9155.t3 a_6599_9155.t2 a_7067_9155.t5 VDD.t4 sg13_lv_pmos ad=1.5542p pd=8.56u as=1.5542p ps=8.56u w=8.18u l=2u
X86 a_7067_5083.t8 a_6599_9155.t49 VCP.t10 VDD.t4 sg13_lv_pmos ad=1.5542p pd=8.56u as=1.5542p ps=8.56u w=8.18u l=2u
X87 VCP.t7 a_6599_9155.t48 a_7067_5083.t8 VDD.t11 sg13_lv_pmos ad=1.5542p pd=8.56u as=1.5542p ps=8.56u w=8.18u l=2u
C0 VDD VBGR 0.42086f
C1 VDD DN 0.0465f
C2 VDD UP 16.0526f
C3 VDD VCP 3.75686f
R0 DN DN.t0 3.54854
R1 VCP.n12 VCP.n11 13.2044
R2 VCP.n0 VCP.t0 4.68252
R3 VCP.n10 VCP.t1 4.67863
R4 VCP.n9 VCP.t2 2.81309
R5 VCP.n11 VCP.t13 2.80807
R6 VCP.n12 VCP.n9 2.66504
R7 VCP.n1 VCP.n0 2.49383
R8 VCP.n2 VCP.n1 2.49383
R9 VCP.n3 VCP.n2 2.49383
R10 VCP.n4 VCP.n3 2.49383
R11 VCP.n5 VCP.n4 2.49383
R12 VCP.n6 VCP.n5 2.49383
R13 VCP.n7 VCP.n6 2.49383
R14 VCP.n8 VCP.n7 2.49383
R15 VCP.n8 VCP.t10 2.18975
R16 VCP.n7 VCP.t7 2.18975
R17 VCP.n6 VCP.t4 2.18975
R18 VCP.n5 VCP.t11 2.18975
R19 VCP.n4 VCP.t6 2.18975
R20 VCP.n3 VCP.t3 2.18975
R21 VCP.n2 VCP.t9 2.18975
R22 VCP.n1 VCP.t5 2.18975
R23 VCP.n0 VCP.t8 2.18975
R24 VCP.n10 VCP.t12 2.1853
R25 VCP.n9 VCP.n8 1.8705
R26 VCP.n11 VCP.n10 1.8705
R27 VCP VCP.n12 1.04364
R28 UP.t2 UP.n0 4.39573
R29 UP.n4 UP.t0 3.55242
R30 UP.n2 UP.t4 3.5502
R31 UP.n1 UP.t4 2.94411
R32 UP.t3 UP.n1 2.9438
R33 UP.n5 UP.t0 2.94359
R34 UP.n5 UP.t1 2.94128
R35 UP.n1 UP.n0 2.4713
R36 UP.n3 UP.t2 2.33654
R37 UP.n2 UP.t3 2.33654
R38 UP.t1 UP.n4 2.33622
R39 UP UP.n6 2.12476
R40 UP.n6 UP.n0 1.5713
R41 UP.n3 UP.n2 1.21656
R42 UP.n4 UP.n3 1.21611
R43 UP.n6 UP.n5 0.9005
R44 VBGR VBGR.n0 5.52726
R45 VBGR VBGR.n3 5.48166
R46 VBGR.t0 VBGR.n1 2.30298
R47 VBGR.n2 VBGR.t0 1.99081
R48 VBGR.n2 VBGR.n0 1.2107
R49 VBGR.n3 VBGR.n2 1.20984
R50 VBGR.n1 VBGR.n0 0.587811
R51 VBGR.n3 VBGR.n1 0.587672
R52 VDD.n672 VDD.n48 17.0005
R53 VDD.n672 VDD.n47 17.0005
R54 VDD.n672 VDD.n46 17.0005
R55 VDD.n672 VDD.n45 17.0005
R56 VDD.n672 VDD.n44 17.0005
R57 VDD.n672 VDD.n43 17.0005
R58 VDD.n672 VDD.n42 17.0005
R59 VDD.n672 VDD.n40 17.0005
R60 VDD.n672 VDD.n39 17.0005
R61 VDD.n672 VDD.n37 17.0005
R62 VDD.n672 VDD.n36 17.0005
R63 VDD.n672 VDD.n35 17.0005
R64 VDD.n672 VDD.n21 17.0005
R65 VDD.n672 VDD.n22 17.0005
R66 VDD.n672 VDD.n23 17.0005
R67 VDD.n672 VDD.n24 17.0005
R68 VDD.n672 VDD.n26 17.0005
R69 VDD.n672 VDD.n27 17.0005
R70 VDD.n672 VDD.n29 17.0005
R71 VDD.n672 VDD.n30 17.0005
R72 VDD.n672 VDD.n31 17.0005
R73 VDD.n672 VDD.n32 17.0005
R74 VDD.n672 VDD.n33 17.0005
R75 VDD.n673 VDD.n672 17.0005
R76 VDD.n672 VDD.n50 17.0005
R77 VDD.n672 VDD.n51 17.0005
R78 VDD.n672 VDD.n52 17.0005
R79 VDD.n672 VDD.n53 17.0005
R80 VDD.n672 VDD.n55 17.0005
R81 VDD.n672 VDD.n56 17.0005
R82 VDD.n672 VDD.n57 17.0005
R83 VDD.n672 VDD.n131 17.0005
R84 VDD.n672 VDD.n244 17.0005
R85 VDD.n672 VDD.n241 17.0005
R86 VDD.n672 VDD.n237 17.0005
R87 VDD.n672 VDD.n234 17.0005
R88 VDD.n672 VDD.n230 17.0005
R89 VDD.n672 VDD.n227 17.0005
R90 VDD.n672 VDD.n223 17.0005
R91 VDD.n672 VDD.n220 17.0005
R92 VDD.n672 VDD.n216 17.0005
R93 VDD.n672 VDD.n215 17.0005
R94 VDD.n672 VDD.n211 17.0005
R95 VDD.n672 VDD.n208 17.0005
R96 VDD.n672 VDD.n204 17.0005
R97 VDD.n672 VDD.n201 17.0005
R98 VDD.n672 VDD.n197 17.0005
R99 VDD.n672 VDD.n194 17.0005
R100 VDD.n672 VDD.n190 17.0005
R101 VDD.n672 VDD.n189 17.0005
R102 VDD.n672 VDD.n185 17.0005
R103 VDD.n672 VDD.n182 17.0005
R104 VDD.n672 VDD.n179 17.0005
R105 VDD.n672 VDD.n176 17.0005
R106 VDD.n672 VDD.n174 17.0005
R107 VDD.n672 VDD.n173 17.0005
R108 VDD.n672 VDD.n171 17.0005
R109 VDD.n672 VDD.n169 17.0005
R110 VDD.n672 VDD.n167 17.0005
R111 VDD.n672 VDD.n165 17.0005
R112 VDD.n672 VDD.n163 17.0005
R113 VDD.n672 VDD.n161 17.0005
R114 VDD.n672 VDD.n159 17.0005
R115 VDD.n672 VDD.n158 17.0005
R116 VDD.n672 VDD.n156 17.0005
R117 VDD.n672 VDD.n154 17.0005
R118 VDD.n672 VDD.n152 17.0005
R119 VDD.n672 VDD.n150 17.0005
R120 VDD.n672 VDD.n148 17.0005
R121 VDD.n672 VDD.n146 17.0005
R122 VDD.n672 VDD.n144 17.0005
R123 VDD.n672 VDD.n142 17.0005
R124 VDD.n672 VDD.n140 17.0005
R125 VDD.n672 VDD.n139 17.0005
R126 VDD.n672 VDD.n137 17.0005
R127 VDD.n672 VDD.n135 17.0005
R128 VDD.n672 VDD.n133 17.0005
R129 VDD.n660 VDD.n314 17.0005
R130 VDD.n660 VDD.n313 17.0005
R131 VDD.n660 VDD.n302 17.0005
R132 VDD.n660 VDD.n300 17.0005
R133 VDD.n661 VDD.n660 17.0005
R134 VDD.n660 VDD.n298 17.0005
R135 VDD.n660 VDD.n296 17.0005
R136 VDD.n660 VDD.n294 17.0005
R137 VDD.n653 VDD.n407 17.0005
R138 VDD.n653 VDD.n410 17.0005
R139 VDD.n653 VDD.n402 17.0005
R140 VDD.n653 VDD.n418 17.0005
R141 VDD.n653 VDD.n401 17.0005
R142 VDD.n653 VDD.n426 17.0005
R143 VDD.n653 VDD.n397 17.0005
R144 VDD.n653 VDD.n434 17.0005
R145 VDD.n653 VDD.n393 17.0005
R146 VDD.n653 VDD.n442 17.0005
R147 VDD.n653 VDD.n389 17.0005
R148 VDD.n653 VDD.n452 17.0005
R149 VDD.n653 VDD.n385 17.0005
R150 VDD.n653 VDD.n455 17.0005
R151 VDD.n653 VDD.n381 17.0005
R152 VDD.n653 VDD.n463 17.0005
R153 VDD.n653 VDD.n377 17.0005
R154 VDD.n653 VDD.n471 17.0005
R155 VDD.n653 VDD.n373 17.0005
R156 VDD.n653 VDD.n484 17.0005
R157 VDD.n653 VDD.n369 17.0005
R158 VDD.n653 VDD.n652 17.0005
R159 VDD.n648 VDD.n365 17.0005
R160 VDD.n646 VDD.n365 17.0005
R161 VDD.n645 VDD.n644 17.0005
R162 VDD.n644 VDD.n643 17.0005
R163 VDD.n639 VDD.n638 17.0005
R164 VDD.n638 VDD.n637 17.0005
R165 VDD.n636 VDD.n635 17.0005
R166 VDD.n635 VDD.n634 17.0005
R167 VDD.n630 VDD.n629 17.0005
R168 VDD.n629 VDD.n628 17.0005
R169 VDD.n627 VDD.n626 17.0005
R170 VDD.n626 VDD.n625 17.0005
R171 VDD.n621 VDD.n620 17.0005
R172 VDD.n620 VDD.n619 17.0005
R173 VDD.n618 VDD.n617 17.0005
R174 VDD.n617 VDD.n616 17.0005
R175 VDD.n612 VDD.n611 17.0005
R176 VDD.n611 VDD.n610 17.0005
R177 VDD.n606 VDD.n605 17.0005
R178 VDD.n605 VDD.n604 17.0005
R179 VDD.n603 VDD.n602 17.0005
R180 VDD.n602 VDD.n601 17.0005
R181 VDD.n597 VDD.n596 17.0005
R182 VDD.n596 VDD.n595 17.0005
R183 VDD.n594 VDD.n593 17.0005
R184 VDD.n593 VDD.n592 17.0005
R185 VDD.n588 VDD.n587 17.0005
R186 VDD.n587 VDD.n586 17.0005
R187 VDD.n585 VDD.n584 17.0005
R188 VDD.n584 VDD.n583 17.0005
R189 VDD.n579 VDD.n578 17.0005
R190 VDD.n578 VDD.n577 17.0005
R191 VDD.n573 VDD.n572 17.0005
R192 VDD.n572 VDD.n571 17.0005
R193 VDD.n570 VDD.n569 17.0005
R194 VDD.n569 VDD.n568 17.0005
R195 VDD.n564 VDD.n563 17.0005
R196 VDD.n563 VDD.n562 17.0005
R197 VDD.n561 VDD.n335 17.0005
R198 VDD.n559 VDD.n335 17.0005
R199 VDD.t1 VDD.n336 8.501
R200 VDD.t1 VDD.n337 8.501
R201 VDD.t1 VDD.n338 8.501
R202 VDD.t1 VDD.n339 8.501
R203 VDD.t1 VDD.n340 8.501
R204 VDD.t1 VDD.n341 8.501
R205 VDD.t1 VDD.n342 8.501
R206 VDD.t1 VDD.n343 8.501
R207 VDD.t1 VDD.n344 8.501
R208 VDD.t1 VDD.n345 8.501
R209 VDD.t1 VDD.n346 8.501
R210 VDD.t1 VDD.n347 8.501
R211 VDD.t1 VDD.n348 8.501
R212 VDD.t1 VDD.n349 8.501
R213 VDD.t1 VDD.n350 8.501
R214 VDD.t1 VDD.n351 8.501
R215 VDD.t1 VDD.n352 8.501
R216 VDD.t1 VDD.n353 8.501
R217 VDD.t1 VDD.n354 8.501
R218 VDD.t1 VDD.n355 8.501
R219 VDD.t1 VDD.n356 8.501
R220 VDD.t1 VDD.n357 8.501
R221 VDD.t1 VDD.n358 8.501
R222 VDD.t1 VDD.n359 8.501
R223 VDD.t1 VDD.n360 8.501
R224 VDD.t1 VDD.n361 8.501
R225 VDD.t1 VDD.n362 8.501
R226 VDD.t1 VDD.n363 8.501
R227 VDD.t1 VDD.n364 8.501
R228 VDD.n655 VDD.t1 8.501
R229 VDD.n660 VDD.n315 8.5005
R230 VDD.n660 VDD.n316 8.5005
R231 VDD.n660 VDD.t11 8.5005
R232 VDD.n660 VDD.t25 8.5005
R233 VDD.n660 VDD.n317 8.5005
R234 VDD.n660 VDD.t8 8.5005
R235 VDD.n660 VDD.t5 8.5005
R236 VDD.n660 VDD.n318 8.5005
R237 VDD.n660 VDD.n319 8.5005
R238 VDD.n660 VDD.t10 8.5005
R239 VDD.n660 VDD.t27 8.5005
R240 VDD.n660 VDD.n320 8.5005
R241 VDD.n660 VDD.t12 8.5005
R242 VDD.n660 VDD.t16 8.5005
R243 VDD.n660 VDD.n321 8.5005
R244 VDD.n660 VDD.n322 8.5005
R245 VDD.n660 VDD.t13 8.5005
R246 VDD.n660 VDD.t18 8.5005
R247 VDD.n660 VDD.n323 8.5005
R248 VDD.n660 VDD.t7 8.5005
R249 VDD.n660 VDD.n324 8.5005
R250 VDD.n660 VDD.n325 8.5005
R251 VDD.n660 VDD.n326 8.5005
R252 VDD.n660 VDD.t9 8.5005
R253 VDD.n660 VDD.n327 8.5005
R254 VDD.n660 VDD.n328 8.5005
R255 VDD.n660 VDD.n329 8.5005
R256 VDD.n660 VDD.n330 8.5005
R257 VDD.n653 VDD.n315 8.5005
R258 VDD.n653 VDD.n316 8.5005
R259 VDD.n653 VDD.t11 8.5005
R260 VDD.n653 VDD.t25 8.5005
R261 VDD.n653 VDD.n317 8.5005
R262 VDD.n653 VDD.t8 8.5005
R263 VDD.n653 VDD.t5 8.5005
R264 VDD.n653 VDD.n318 8.5005
R265 VDD.n653 VDD.n319 8.5005
R266 VDD.n653 VDD.t10 8.5005
R267 VDD.n653 VDD.t27 8.5005
R268 VDD.n653 VDD.n320 8.5005
R269 VDD.n653 VDD.t12 8.5005
R270 VDD.n653 VDD.t16 8.5005
R271 VDD.n653 VDD.n321 8.5005
R272 VDD.n653 VDD.n322 8.5005
R273 VDD.n653 VDD.t13 8.5005
R274 VDD.n653 VDD.t18 8.5005
R275 VDD.n653 VDD.n323 8.5005
R276 VDD.n653 VDD.t7 8.5005
R277 VDD.n653 VDD.n324 8.5005
R278 VDD.n653 VDD.n325 8.5005
R279 VDD.n653 VDD.n326 8.5005
R280 VDD.n653 VDD.t9 8.5005
R281 VDD.n653 VDD.n327 8.5005
R282 VDD.n653 VDD.n328 8.5005
R283 VDD.n653 VDD.n329 8.5005
R284 VDD.n653 VDD.n330 8.5005
R285 VDD.n672 VDD.n25 8.46995
R286 VDD.n672 VDD.n28 8.46995
R287 VDD.n672 VDD.n246 8.46995
R288 VDD.n672 VDD.n239 8.46995
R289 VDD.n672 VDD.n232 8.46995
R290 VDD.n672 VDD.n225 8.46995
R291 VDD.n672 VDD.n218 8.46995
R292 VDD.n672 VDD.n213 8.46995
R293 VDD.n672 VDD.n206 8.46995
R294 VDD.n672 VDD.n199 8.46995
R295 VDD.n672 VDD.n192 8.46995
R296 VDD.n672 VDD.n187 8.46995
R297 VDD.n672 VDD.n181 8.46995
R298 VDD.n672 VDD.n172 8.46995
R299 VDD.n672 VDD.n168 8.46995
R300 VDD.n672 VDD.n164 8.46995
R301 VDD.n672 VDD.n160 8.46995
R302 VDD.n672 VDD.n157 8.46995
R303 VDD.n672 VDD.n153 8.46995
R304 VDD.n672 VDD.n149 8.46995
R305 VDD.n672 VDD.n145 8.46995
R306 VDD.n672 VDD.n141 8.46995
R307 VDD.n672 VDD.n138 8.46995
R308 VDD.n672 VDD.n134 8.46995
R309 VDD.n660 VDD.n311 8.46995
R310 VDD.n660 VDD.n299 8.46995
R311 VDD.n660 VDD.n297 8.46995
R312 VDD.n660 VDD.n292 8.46995
R313 VDD.n653 VDD.n403 8.46995
R314 VDD.n653 VDD.n415 8.46995
R315 VDD.n653 VDD.n423 8.46995
R316 VDD.n653 VDD.n398 8.46995
R317 VDD.n653 VDD.n431 8.46995
R318 VDD.n653 VDD.n394 8.46995
R319 VDD.n653 VDD.n439 8.46995
R320 VDD.n653 VDD.n390 8.46995
R321 VDD.n653 VDD.n447 8.46995
R322 VDD.n653 VDD.n386 8.46995
R323 VDD.n653 VDD.n382 8.46995
R324 VDD.n653 VDD.n460 8.46995
R325 VDD.n653 VDD.n378 8.46995
R326 VDD.n653 VDD.n468 8.46995
R327 VDD.n653 VDD.n374 8.46995
R328 VDD.n653 VDD.n474 8.46995
R329 VDD.n653 VDD.n481 8.46995
R330 VDD.n653 VDD.n370 8.46995
R331 VDD.n653 VDD.n489 8.46995
R332 VDD.n653 VDD.n366 8.46995
R333 VDD.n641 VDD.n495 8.46995
R334 VDD.n632 VDD.n502 8.46995
R335 VDD.n623 VDD.n509 8.46995
R336 VDD.n614 VDD.n516 8.46995
R337 VDD.n608 VDD.n521 8.46995
R338 VDD.n599 VDD.n528 8.46995
R339 VDD.n590 VDD.n535 8.46995
R340 VDD.n581 VDD.n542 8.46995
R341 VDD.n575 VDD.n547 8.46995
R342 VDD.n566 VDD.n554 8.46995
R343 VDD.n657 VDD.n656 8.46995
R344 VDD.n672 VDD.n41 8.46995
R345 VDD.n672 VDD.n38 8.46995
R346 VDD.n672 VDD.n242 8.46995
R347 VDD.n672 VDD.n235 8.46995
R348 VDD.n672 VDD.n228 8.46995
R349 VDD.n672 VDD.n221 8.46995
R350 VDD.n672 VDD.n209 8.46995
R351 VDD.n672 VDD.n202 8.46995
R352 VDD.n672 VDD.n195 8.46995
R353 VDD.n672 VDD.n183 8.46995
R354 VDD.n672 VDD.n177 8.46995
R355 VDD.n672 VDD.n170 8.46995
R356 VDD.n672 VDD.n166 8.46995
R357 VDD.n672 VDD.n162 8.46995
R358 VDD.n672 VDD.n155 8.46995
R359 VDD.n672 VDD.n151 8.46995
R360 VDD.n672 VDD.n147 8.46995
R361 VDD.n672 VDD.n143 8.46995
R362 VDD.n672 VDD.n136 8.46995
R363 VDD.n672 VDD.n132 8.46995
R364 VDD.n660 VDD.n301 8.46995
R365 VDD.n660 VDD.n290 8.46995
R366 VDD.n660 VDD.n295 8.46995
R367 VDD.t26 VDD.n18 8.46847
R368 VDD.t26 VDD.n252 8.46847
R369 VDD.t26 VDD.n257 8.46847
R370 VDD.t26 VDD.n262 8.46847
R371 VDD.t26 VDD.n263 8.46847
R372 VDD.t26 VDD.n272 8.46847
R373 VDD.t26 VDD.n279 8.46847
R374 VDD.n105 VDD.t24 8.46847
R375 VDD.n100 VDD.t24 8.46847
R376 VDD.n95 VDD.t24 8.46847
R377 VDD.n90 VDD.t24 8.46847
R378 VDD.n69 VDD.t24 8.46847
R379 VDD.n81 VDD.t24 8.46847
R380 VDD.n76 VDD.t24 8.46847
R381 VDD.n687 VDD.n686 7.45877
R382 VDD.t1 VDD.n654 5.66767
R383 VDD.n660 VDD.t0 5.66717
R384 VDD.n653 VDD.t0 5.66717
R385 VDD.n72 VDD.t24 5.66115
R386 VDD.n280 VDD.t26 5.66082
R387 VDD.n688 VDD.t28 4.89758
R388 VDD.n672 VDD.n243 4.251
R389 VDD.n672 VDD.n240 4.251
R390 VDD.n672 VDD.n238 4.251
R391 VDD.n672 VDD.n236 4.251
R392 VDD.n672 VDD.n233 4.251
R393 VDD.n672 VDD.n231 4.251
R394 VDD.n672 VDD.n229 4.251
R395 VDD.n672 VDD.n226 4.251
R396 VDD.n672 VDD.n224 4.251
R397 VDD.n672 VDD.n222 4.251
R398 VDD.n672 VDD.n219 4.251
R399 VDD.n672 VDD.n217 4.251
R400 VDD.n672 VDD.n214 4.251
R401 VDD.n672 VDD.n212 4.251
R402 VDD.n672 VDD.n210 4.251
R403 VDD.n672 VDD.n207 4.251
R404 VDD.n672 VDD.n205 4.251
R405 VDD.n672 VDD.n203 4.251
R406 VDD.n672 VDD.n200 4.251
R407 VDD.n672 VDD.n198 4.251
R408 VDD.n672 VDD.n196 4.251
R409 VDD.n672 VDD.n193 4.251
R410 VDD.n672 VDD.n191 4.251
R411 VDD.n672 VDD.n188 4.251
R412 VDD.n672 VDD.n180 4.251
R413 VDD.n672 VDD.n178 4.251
R414 VDD.n107 VDD.n63 3.8949
R415 VDD.n678 VDD.n677 3.37176
R416 VDD.n672 VDD.n186 2.83433
R417 VDD.n672 VDD.n184 2.83433
R418 VDD.n109 VDD.n108 2.49383
R419 VDD.n117 VDD.n62 2.49383
R420 VDD.n127 VDD.n17 2.49383
R421 VDD.n680 VDD.n10 2.30226
R422 VDD.n696 VDD.n1 2.28717
R423 VDD.n13 VDD.n4 2.28013
R424 VDD.n694 VDD.n693 2.28013
R425 VDD.n109 VDD.t20 2.26595
R426 VDD.n108 VDD.t22 2.26595
R427 VDD.n686 VDD.n4 2.26577
R428 VDD.n14 VDD.n13 2.26577
R429 VDD.n693 VDD.n687 2.26577
R430 VDD.n695 VDD.n694 2.26577
R431 VDD.n17 VDD.t6 2.26371
R432 VDD.n127 VDD.t17 2.26371
R433 VDD.n122 VDD.t14 2.26371
R434 VDD.n62 VDD.t15 2.26371
R435 VDD.n117 VDD.t2 2.26371
R436 VDD.n1 VDD.n0 2.2505
R437 VDD.n696 VDD.n695 2.2505
R438 VDD.n2 VDD.n0 2.2505
R439 VDD.n691 VDD.n690 2.2505
R440 VDD.n688 VDD.n687 2.2505
R441 VDD.n3 VDD.n2 2.2505
R442 VDD.n692 VDD.n691 2.2505
R443 VDD.n11 VDD.n5 2.2505
R444 VDD.n15 VDD.n12 2.2505
R445 VDD.n686 VDD.n685 2.2505
R446 VDD.n6 VDD.n5 2.2505
R447 VDD.n679 VDD.n15 2.2505
R448 VDD.n14 VDD.n10 2.2505
R449 VDD.n685 VDD.n684 2.2505
R450 VDD.n682 VDD.n6 2.2505
R451 VDD.n680 VDD.n679 2.2505
R452 VDD.n120 VDD.n119 2.0949
R453 VDD.n677 VDD.n16 2.0949
R454 VDD.n672 VDD.n671 1.98947
R455 VDD.n672 VDD.n34 1.97621
R456 VDD.n108 VDD.n107 1.8705
R457 VDD.n121 VDD.n62 1.8705
R458 VDD.n676 VDD.n17 1.8705
R459 VDD.n677 VDD.n676 1.8005
R460 VDD.n128 VDD.n16 1.8005
R461 VDD.n121 VDD.n120 1.8005
R462 VDD.n119 VDD.n118 1.8005
R463 VDD.n110 VDD.n63 1.8005
R464 VDD.n659 VDD.n658 1.52982
R465 VDD.n674 VDD.n19 1.43536
R466 VDD.n68 VDD.n49 1.43201
R467 VDD.n659 VDD.n9 1.43197
R468 VDD.n61 VDD.n54 1.38155
R469 VDD.n64 VDD.n54 1.37725
R470 VDD.n111 VDD.n49 1.36801
R471 VDD.n130 VDD.n19 1.36345
R472 VDD.n281 VDD.n280 1.18607
R473 VDD.n72 VDD.n71 1.18574
R474 VDD.n689 VDD.n1 1.16442
R475 VDD.n248 VDD.n247 1.14175
R476 VDD.n278 VDD.n277 1.14175
R477 VDD.n276 VDD.n273 1.14175
R478 VDD.n275 VDD.n274 1.14175
R479 VDD.n271 VDD.n264 1.14175
R480 VDD.n270 VDD.n269 1.14175
R481 VDD.n268 VDD.n267 1.14175
R482 VDD.n266 VDD.n265 1.14175
R483 VDD.n261 VDD.n258 1.14175
R484 VDD.n260 VDD.n259 1.14175
R485 VDD.n256 VDD.n253 1.14175
R486 VDD.n255 VDD.n254 1.14175
R487 VDD.n251 VDD.n249 1.14175
R488 VDD.n250 VDD.n20 1.14175
R489 VDD.n675 VDD.n674 1.14175
R490 VDD.n73 VDD.n70 1.14175
R491 VDD.n75 VDD.n74 1.14175
R492 VDD.n78 VDD.n77 1.14175
R493 VDD.n80 VDD.n79 1.14175
R494 VDD.n83 VDD.n82 1.14175
R495 VDD.n85 VDD.n84 1.14175
R496 VDD.n87 VDD.n86 1.14175
R497 VDD.n89 VDD.n88 1.14175
R498 VDD.n92 VDD.n91 1.14175
R499 VDD.n94 VDD.n93 1.14175
R500 VDD.n97 VDD.n96 1.14175
R501 VDD.n99 VDD.n98 1.14175
R502 VDD.n102 VDD.n101 1.14175
R503 VDD.n104 VDD.n103 1.14175
R504 VDD.n106 VDD.n68 1.14175
R505 VDD.n113 VDD.n67 1.06612
R506 VDD.n114 VDD.n66 1.06612
R507 VDD.n115 VDD.n65 1.06612
R508 VDD.n116 VDD.n64 1.06612
R509 VDD.n123 VDD.n61 1.06612
R510 VDD.n124 VDD.n60 1.06612
R511 VDD.n125 VDD.n59 1.06612
R512 VDD.n126 VDD.n58 1.06612
R513 VDD.n130 VDD.n129 1.06612
R514 VDD.n112 VDD.n111 1.06612
R515 VDD.n119 VDD.n63 0.9399
R516 VDD.n120 VDD.n16 0.9399
R517 VDD.n676 VDD.n675 0.843833
R518 VDD.n107 VDD.n106 0.843833
R519 VDD.n118 VDD.n116 0.757405
R520 VDD.n129 VDD.n128 0.757405
R521 VDD.n112 VDD.n110 0.746929
R522 VDD.n110 VDD.n109 0.623833
R523 VDD.n118 VDD.n117 0.623833
R524 VDD.n122 VDD.n121 0.623833
R525 VDD.n128 VDD.n127 0.623833
R526 VDD.n71 VDD.n34 0.525183
R527 VDD.n671 VDD.n281 0.509337
R528 VDD.n672 VDD.n245 0.48667
R529 VDD.n576 VDD.n546 0.48175
R530 VDD.n613 VDD.n517 0.48175
R531 VDD.n477 VDD.n476 0.48175
R532 VDD.n441 VDD.n440 0.48175
R533 VDD.n406 VDD.n282 0.48175
R534 VDD.n405 VDD.n404 0.48175
R535 VDD.n409 VDD.n408 0.48175
R536 VDD.n412 VDD.n411 0.48175
R537 VDD.n414 VDD.n413 0.48175
R538 VDD.n417 VDD.n416 0.48175
R539 VDD.n420 VDD.n419 0.48175
R540 VDD.n422 VDD.n421 0.48175
R541 VDD.n400 VDD.n399 0.48175
R542 VDD.n425 VDD.n424 0.48175
R543 VDD.n428 VDD.n427 0.48175
R544 VDD.n430 VDD.n429 0.48175
R545 VDD.n396 VDD.n395 0.48175
R546 VDD.n433 VDD.n432 0.48175
R547 VDD.n436 VDD.n435 0.48175
R548 VDD.n438 VDD.n437 0.48175
R549 VDD.n392 VDD.n391 0.48175
R550 VDD.n444 VDD.n443 0.48175
R551 VDD.n446 VDD.n445 0.48175
R552 VDD.n388 VDD.n387 0.48175
R553 VDD.n451 VDD.n450 0.48175
R554 VDD.n449 VDD.n448 0.48175
R555 VDD.n384 VDD.n383 0.48175
R556 VDD.n454 VDD.n453 0.48175
R557 VDD.n457 VDD.n456 0.48175
R558 VDD.n459 VDD.n458 0.48175
R559 VDD.n380 VDD.n379 0.48175
R560 VDD.n462 VDD.n461 0.48175
R561 VDD.n465 VDD.n464 0.48175
R562 VDD.n467 VDD.n466 0.48175
R563 VDD.n376 VDD.n375 0.48175
R564 VDD.n470 VDD.n469 0.48175
R565 VDD.n473 VDD.n472 0.48175
R566 VDD.n478 VDD.n475 0.48175
R567 VDD.n480 VDD.n479 0.48175
R568 VDD.n372 VDD.n371 0.48175
R569 VDD.n483 VDD.n482 0.48175
R570 VDD.n486 VDD.n485 0.48175
R571 VDD.n488 VDD.n487 0.48175
R572 VDD.n368 VDD.n367 0.48175
R573 VDD.n651 VDD.n650 0.48175
R574 VDD.n649 VDD.n490 0.48175
R575 VDD.n647 VDD.n491 0.48175
R576 VDD.n493 VDD.n492 0.48175
R577 VDD.n642 VDD.n494 0.48175
R578 VDD.n640 VDD.n496 0.48175
R579 VDD.n498 VDD.n497 0.48175
R580 VDD.n500 VDD.n499 0.48175
R581 VDD.n633 VDD.n501 0.48175
R582 VDD.n631 VDD.n503 0.48175
R583 VDD.n505 VDD.n504 0.48175
R584 VDD.n507 VDD.n506 0.48175
R585 VDD.n624 VDD.n508 0.48175
R586 VDD.n622 VDD.n510 0.48175
R587 VDD.n512 VDD.n511 0.48175
R588 VDD.n514 VDD.n513 0.48175
R589 VDD.n615 VDD.n515 0.48175
R590 VDD.n519 VDD.n518 0.48175
R591 VDD.n609 VDD.n520 0.48175
R592 VDD.n607 VDD.n522 0.48175
R593 VDD.n524 VDD.n523 0.48175
R594 VDD.n526 VDD.n525 0.48175
R595 VDD.n600 VDD.n527 0.48175
R596 VDD.n598 VDD.n529 0.48175
R597 VDD.n531 VDD.n530 0.48175
R598 VDD.n533 VDD.n532 0.48175
R599 VDD.n591 VDD.n534 0.48175
R600 VDD.n589 VDD.n536 0.48175
R601 VDD.n538 VDD.n537 0.48175
R602 VDD.n540 VDD.n539 0.48175
R603 VDD.n582 VDD.n541 0.48175
R604 VDD.n580 VDD.n543 0.48175
R605 VDD.n545 VDD.n544 0.48175
R606 VDD.n574 VDD.n548 0.48175
R607 VDD.n550 VDD.n549 0.48175
R608 VDD.n552 VDD.n551 0.48175
R609 VDD.n567 VDD.n553 0.48175
R610 VDD.n565 VDD.n555 0.48175
R611 VDD.n557 VDD.n556 0.48175
R612 VDD.n560 VDD.n558 0.48175
R613 VDD.n334 VDD.n333 0.48175
R614 VDD.n658 VDD.n332 0.48175
R615 VDD.n665 VDD.n287 0.48175
R616 VDD.n666 VDD.n286 0.48175
R617 VDD.n667 VDD.n285 0.48175
R618 VDD.n668 VDD.n284 0.48175
R619 VDD.n669 VDD.n283 0.48175
R620 VDD.n664 VDD.n288 0.48175
R621 VDD.n663 VDD.n662 0.48175
R622 VDD.n332 VDD.n34 0.471337
R623 VDD.n312 VDD.n7 0.468
R624 VDD.n306 VDD.n305 0.468
R625 VDD.n307 VDD.n304 0.468
R626 VDD.n308 VDD.n303 0.468
R627 VDD.n310 VDD.n309 0.468
R628 VDD.n683 VDD.n8 0.468
R629 VDD.n681 VDD.n9 0.468
R630 VDD.n291 VDD.n289 0.468
R631 VDD.n671 VDD.n670 0.290822
R632 VDD.n113 VDD.n112 0.183833
R633 VDD.n114 VDD.n113 0.183833
R634 VDD.n115 VDD.n114 0.183833
R635 VDD.n116 VDD.n115 0.183833
R636 VDD.n124 VDD.n123 0.183833
R637 VDD.n125 VDD.n124 0.183833
R638 VDD.n126 VDD.n125 0.183833
R639 VDD.n129 VDD.n126 0.183833
R640 VDD.n478 VDD.n477 0.183833
R641 VDD.n672 VDD.n54 0.144068
R642 VDD.n278 VDD.n248 0.131125
R643 VDD.n276 VDD.n275 0.131125
R644 VDD.n271 VDD.n270 0.131125
R645 VDD.n267 VDD.n266 0.131125
R646 VDD.n261 VDD.n260 0.131125
R647 VDD.n256 VDD.n255 0.131125
R648 VDD.n251 VDD.n250 0.131125
R649 VDD.n75 VDD.n73 0.131125
R650 VDD.n80 VDD.n78 0.131125
R651 VDD.n84 VDD.n83 0.131125
R652 VDD.n89 VDD.n87 0.131125